Version 4
SHEET 1 1708 880
WIRE 224 144 192 144
WIRE 320 160 288 160
WIRE 352 160 320 160
WIRE 496 160 352 160
WIRE 592 160 576 160
WIRE 640 160 592 160
WIRE 752 160 720 160
WIRE 224 176 192 176
WIRE 352 208 352 160
WIRE -144 240 -320 240
WIRE -48 240 -80 240
WIRE -144 272 -176 272
WIRE -48 272 -80 272
WIRE -320 288 -320 240
WIRE 192 320 192 176
WIRE 352 320 352 288
WIRE 352 320 192 320
WIRE -176 384 -176 272
WIRE 192 416 192 320
WIRE 592 448 592 160
WIRE 624 448 592 448
WIRE 720 464 688 464
WIRE 752 464 752 160
WIRE 752 464 720 464
WIRE 624 480 592 480
WIRE 192 576 192 496
WIRE 352 576 192 576
WIRE 352 592 352 576
WIRE 192 704 192 576
WIRE 224 704 192 704
WIRE 320 720 288 720
WIRE 352 720 352 672
WIRE 352 720 320 720
WIRE 432 720 352 720
WIRE 592 720 592 480
WIRE 592 720 512 720
WIRE 640 720 592 720
WIRE 224 736 192 736
FLAG 1008 320 0
FLAG 880 320 0
FLAG 880 240 2.5
FLAG 1008 240 -2.5
FLAG 256 192 2.5
FLAG 256 128 -2.5
FLAG 256 688 2.5
FLAG 256 752 -2.5
FLAG 320 160 vop
FLAG 320 720 vom
FLAG 720 720 0
FLAG 656 432 2.5
FLAG 656 496 -2.5
FLAG 720 464 vout
FLAG 192 144 vp
FLAG 192 736 vm
FLAG -320 368 0
FLAG -48 240 vp
FLAG -48 272 vm
FLAG -176 464 0
DATAFLAG 208 144 ""
DATAFLAG 352 160 ""
DATAFLAG 592 160 ""
DATAFLAG 592 720 ""
DATAFLAG 352 720 ""
DATAFLAG 192 576 ""
DATAFLAG 192 320 ""
DATAFLAG 192 736 ""
DATAFLAG 752 464 ""
SYMBOL Opamps\\UniversalOpamp2 256 160 M180
SYMATTR InstName U1
SYMATTR SpiceModel level.1
SYMATTR Value2 Avol=10Meg GBW=1Meg Slew=10Meg
SYMBOL res 368 304 R180
WINDOW 0 36 76 Left 2
WINDOW 3 36 40 Left 2
SYMATTR InstName R3
SYMATTR Value 4.95k
SYMBOL voltage 880 224 R0
WINDOW 123 24 44 Left 2
WINDOW 39 0 0 Left 0
SYMATTR InstName V3
SYMATTR Value 2.5
SYMBOL voltage 1008 224 R0
WINDOW 123 0 0 Left 0
WINDOW 39 0 0 Left 0
SYMATTR InstName V4
SYMATTR Value -2.5
SYMBOL Opamps\\UniversalOpamp2 256 720 R0
SYMATTR InstName U2
SYMATTR SpiceModel level.1
SYMATTR Value2 Avol=10Meg GBW=1Meg Slew=10Meg
SYMBOL res 336 688 M180
WINDOW 0 36 76 Left 2
WINDOW 3 36 40 Left 2
SYMATTR InstName R5
SYMATTR Value 4.95k
SYMBOL Opamps\\UniversalOpamp2 656 464 R0
SYMATTR InstName U3
SYMATTR SpiceModel level.1
SYMATTR Value2 Avol=10Meg GBW=100Meg Slew=10Meg
SYMBOL res 592 144 R90
WINDOW 0 0 56 VBottom 2
WINDOW 3 -53 86 VTop 2
SYMATTR InstName R2
SYMATTR Value {epsilon2}
SYMBOL res 736 144 R90
WINDOW 0 0 56 VBottom 2
WINDOW 3 -52 -18 VTop 2
SYMATTR InstName R4
SYMATTR Value {epsilon}
SYMBOL res 736 704 R90
WINDOW 0 0 56 VBottom 2
WINDOW 3 34 2 VTop 2
SYMATTR InstName R7
SYMATTR Value {epsilon2}
SYMBOL res 416 736 R270
WINDOW 0 32 56 VTop 2
WINDOW 3 0 56 VBottom 2
SYMATTR InstName R8
SYMATTR Value {epsilon}
SYMBOL res 176 400 R0
SYMATTR InstName R1
SYMATTR Value 100
SYMBOL AutoGenerated\\balun -112 256 R0
SYMATTR InstName U4
SYMBOL voltage -320 272 M0
WINDOW 123 24 124 Left 2
WINDOW 39 0 0 Left 0
SYMATTR InstName V1
SYMATTR Value 1m
SYMBOL voltage -176 368 M0
WINDOW 123 24 124 Left 2
WINDOW 39 0 0 Left 0
SYMATTR InstName V2
SYMATTR Value 0
TEXT 848 448 Left 2 !.op
TEXT 848 488 Left 2 ;.tran 1
TEXT -440 536 Left 2 !.param adiff = 1m
TEXT -440 592 Left 2 !.param acm = 0
TEXT 854 526 Left 2 ;.ac dec 100 1 10Meg
TEXT -432 656 Left 2 !.param epsilon = 10k*(1+0.001)
TEXT -440 696 Left 2 !.param epsilon2=10k*(1-0.001)
